-------------------------------------------------------
          Amber 9  SANDER                 Scripps/UCSF 2004
          -------------------------------------------------------

  [-O]verwriting output

File Assignments:

 Here is the input file:

 short md, nve ensemble
 &cntrl
   ntx=7, irest=1,
   ntc=2, ntf=2, tol=0.0000001,
   nstlim=1000,
   ntpr=100, ntwr=10000,
   dt=0.001, vlimit=10.0,
   cut=9.,
   ntt=0, temp0=300.,
   ips=2,
 /
 &ewald
  a=62.23, b=62.23, c=62.23,
  nfft1=64,nfft2=64,nfft3=64,
  skinnb=2.,
 /

--------------------------------------------------------------------------------
   1.  RESOURCE   USE:
--------------------------------------------------------------------------------

 getting new box info from bottom of inpcrd

 NATOM  =   23558 NTYPES =      16 NBONH =   22290 MBONA  =    1302
 NTHETH =    2789 MTHETA =    1772 NPHIH =    5026 MPHIA  =    3140
 NHPARM =       0 NPARM  =       0 NNB   =   41859 NRES   =    7182
 NBONA  =    1302 NTHETA =    1772 NPHIA =    3140 NUMBND =      45
 NUMANG =      91 NPTRA  =      33 NATYP =      31 NPHB   =       1
 IFBOX  =       1 NMXRS  =      25 IFCAP =       0 NEXTRA =       0
 NCOPY  =       0

     BOX TYPE: RECTILINEAR

--------------------------------------------------------------------------------
   2.  CONTROL  DATA  FOR  THE  RUN
--------------------------------------------------------------------------------

General flags:
     imin    =       0, nmropt  =       0

Nature and format of input:
     ntx     =       7, irest   =       1, ntrx    =       1

Nature and format of output:
     ntxo    =       1, ntpr    =     100, ntrx    =       1, ntwr    =   10000
     iwrap   =       0, ntwx    =       0, ntwv    =       0, ntwe    =       0
     ioutfm  =       0, ntwprt  =       0, idecomp =       0, rbornstat=      0

Potential function:
     ntf     =       2, ntb     =       1, igb     =       0, nsnb    =      25
     ipol    =       0, gbsa    =       0, iesp    =       0
     dielc   =   1.00000, cut     =   9.00000, intdiel =   1.00000

Frozen or restrained atoms:
     ibelly  =       0, ntr     =       0

Molecular dynamics:
     nstlim  =    1000, nscm    =    1000, nrespa  =       1
     t       =   0.00000, dt      =   0.00100, vlimit  =  10.00000

SHAKE:
     ntc     =       2, jfastw  =       0
     tol     =   0.00000

Ewald parameters:
     verbose =       0, ew_type =       0, nbflag  =       1, use_pme =       0
     vdwmeth =       1, eedmeth =       6, netfrc  =       1
     Box X =   62.230   Box Y =   62.230   Box Z =   62.230
     Alpha =   90.000   Beta  =   90.000   Gamma =   90.000
     NFFT1 =   64       NFFT2 =   64       NFFT3 =   64
     Cutoff=    9.000   Tol   =0.100E-04
     Ewald Coefficient =  0.30768
     Interpolation order =    4

--------------------------------------------------------------------------------
   3.  ATOMIC COORDINATES AND VELOCITIES
--------------------------------------------------------------------------------

 begin time read from input coords =     6.000 ps

 Number of triangulated 3-point waters found:     7023

     Sum of charges from parm topology file = -11.00000006
     Unusual simulation - Periodic and No Reciprocal Ewald and Nonzero Net Charge

--------------------------------------------------------------------------------
   4.  RESULTS
 NSTEP =      100   TIME(PS) =       6.100  TEMP(K) =   295.98  PRESS =     0.0
 Etot   =    -57622.7178  EKtot   =     14228.1406  EPtot      =    -71850.8584
 BOND   =       432.5996  ANGLE   =      1144.6812  DIHED      =       988.0046
 1-4 NB =       543.6987  1-4 EEL =      6579.8126  VDWAALS    =      9085.9712
 EELEC  =    -90625.6264  EHBOND  =         0.0000  RESTRAINT  =         0.0000
 ------------------------------------------------------------------------------

      A V E R A G E S   O V E R    1000 S T E P S

 NSTEP =     1000   TIME(PS) =       7.000  TEMP(K) =   299.67  PRESS =     0.0
 Etot   =    -57623.5131  EKtot   =     14405.4810  EPtot      =    -72028.9942
 BOND   =       423.1672  ANGLE   =      1162.9756  DIHED      =       973.5199
 1-4 NB =       544.3971  1-4 EEL =      6558.5258  VDWAALS    =      8780.2020
 EELEC  =    -90471.7818  EHBOND  =         0.0000  RESTRAINT  =         0.0000
 ------------------------------------------------------------------------------

      R M S  F L U C T U A T I O N S

 NSTEP =     1000   TIME(PS) =       7.000  TEMP(K) =     1.62  PRESS =     0.0
 Etot   =         0.9228  EKtot   =        77.7721  EPtot      =        78.2140
 BOND   =        17.1716  ANGLE   =        22.2345  DIHED      =        12.5629
 1-4 NB =         9.9543  1-4 EEL =        30.7067  VDWAALS    =       117.3276
 EELEC  =       145.1683  EHBOND  =         0.0000  RESTRAINT  =         0.0000
 ------------------------------------------------------------------------------
