-------------------------------------------------------
          Amber 10 SANDER                              2008
          -------------------------------------------------------

  [-O]verwriting output

File Assignments:

 Here is the input file:

 test of gen. Born, on myoglobin
 &cntrl
   nstlim=1000, cut=20.0, igb=1, saltcon=0.2,
   ntpr=200, ntwr=100000, ntt=0,
   ntx=5, irest=1,
   ntc=2, ntf=2, tol=0.000001,
   dt=0.001, ntb=0,
   nrespa=4,
 /

--------------------------------------------------------------------------------
   1.  RESOURCE   USE:
--------------------------------------------------------------------------------

 NATOM  =    2492 NTYPES =      14 NBONH =    1275 MBONA  =    1245
 NTHETH =    2900 MTHETA =    1673 NPHIH =    5168 MPHIA  =    2923
 NHPARM =       0 NPARM  =       0 NNB   =   13801 NRES   =     153
 NBONA  =    1245 NTHETA =    1673 NPHIA =    2923 NUMBND =      38
 NUMANG =      88 NPTRA  =      31 NATYP =      25 NPHB   =       0
 IFBOX  =       0 NMXRS  =      24 IFCAP =       0 NEXTRA =       0
 NCOPY  =       0

--------------------------------------------------------------------------------
   2.  CONTROL  DATA  FOR  THE  RUN
--------------------------------------------------------------------------------

General flags:
     imin    =       0, nmropt  =       0

Nature and format of input:
     ntx     =       5, irest   =       1, ntrx    =       1

Nature and format of output:
     ntxo    =       1, ntpr    =     200, ntrx    =       1, ntwr    =  100000
     iwrap   =       0, ntwx    =       0, ntwv    =       0, ntwe    =       0
     ioutfm  =       0, ntwprt  =       0, idecomp =       0, rbornstat=      0

Potential function:
     ntf     =       2, ntb     =       0, igb     =       1, nsnb    =      25
     ipol    =       0, gbsa    =       0, iesp    =       0
     dielc   =   1.00000, cut     =  20.00000, intdiel =   1.00000
     saltcon =   0.20000, offset  =   0.09000, gbalpha=    1.00000
     gbbeta  =   0.00000, gbgamma =   0.00000, surften =   0.00500
     rdt     =   0.00000, rgbmax  =  25.00000  extdiel =  78.50000
     alpb  =        0

Frozen or restrained atoms:
     ibelly  =       0, ntr     =       0

Molecular dynamics:
     nstlim  =      1000, nscm    =      1000, nrespa  =         4
     t       =   0.00000, dt      =   0.00100, vlimit  =  20.00000

SHAKE:
     ntc     =       2, jfastw  =       0
     tol     =   0.00000

--------------------------------------------------------------------------------
   3.  ATOMIC COORDINATES AND VELOCITIES
--------------------------------------------------------------------------------

 begin time read from input coords =     1.500 ps

 Number of triangulated 3-point waters found:        0

--------------------------------------------------------------------------------
   4.  RESULTS
 NSTEP =      200   TIME(PS) =       1.700  TEMP(K) =   306.08  PRESS =     0.0
 Etot   =     -1416.0161  EKtot   =      1884.0265  EPtot      =     -3300.0426
 BOND   =       433.6777  ANGLE   =      1469.6981  DIHED      =       801.6392
 1-4 NB =       510.9328  1-4 EEL =      7848.4410  VDWAALS    =     -1173.7941
 EELEC  =     -5527.0788  EGB     =     -7663.5585  RESTRAINT  =         0.0000
 ------------------------------------------------------------------------------

      A V E R A G E S   O V E R     250 S T E P S

 NSTEP =     1000   TIME(PS) =       2.500  TEMP(K) =   302.74  PRESS =     0.0
 Etot   =     -1415.2241  EKtot   =      1863.4695  EPtot      =     -3278.6936
 BOND   =       451.9808  ANGLE   =      1447.7040  DIHED      =       804.7478
 1-4 NB =       523.8938  1-4 EEL =      7876.6471  VDWAALS    =     -1172.0370
 EELEC  =     -5533.2614  EGB     =     -7678.3688  RESTRAINT  =         0.0000
 ------------------------------------------------------------------------------

      R M S  F L U C T U A T I O N S

 NSTEP =     1000   TIME(PS) =       2.500  TEMP(K) =     4.11  PRESS =     0.0
 Etot   =         0.4500  EKtot   =        25.3154  EPtot      =        25.5592
 BOND   =        17.6683  ANGLE   =        26.8509  DIHED      =        13.3192
 1-4 NB =         9.7914  1-4 EEL =        24.5611  VDWAALS    =        10.4462
 EELEC  =       171.5102  EGB     =       168.1478  RESTRAINT  =         0.0000
 ------------------------------------------------------------------------------
